tests/cases/il_200/ACTIVSg200.aux
DATA (PWCaseInformation, [Selected])
{
"NO "
   <SUBDATA PWCaseHeader>
     //Case Description
     This is a synthetic power system model that does not represent the actual grid. It was developed as part of the US ARPA-E Grid 
     Data research project and contains no CEII.
     Reference: A.B. Birchfield, T. Xu, K.M. Gegner, K.S. Shetye, and T.J. Overbye, "Grid Structural Characteristics as Validation 
     Criteria for Synthetic Networks," to appear, IEEE Transactions on Power Systems, 2017.
   </SUBDATA>
}
DATA (Owner, [OwnerNum,OwnerName,DataMaintainerAssign])
{
       1 "1" ""
}
DATA (Substation, [SubNum,SubName,SubID,Latitude,Longitude,DataMaintainerAssign,GICSubGroundOhms,
   GICUsedSubGroundOhms])
{
       1 "CREVE COEUR" "1" 40.64211600000000150000 -89.59955999999999680000 ""     1.065269     1.065269
       2 "ILLIOPOLIS" "2" 39.86603000000000210000 -89.25129099999999480000 ""     0.495269     0.495269
       3 "PAXTON 2" "3" 40.37833700000000190000 -88.10515100000000640000 ""     0.079473     0.079473
       4 "PEORIA 9" "4" 40.71288200000000050000 -89.57672200000000370000 ""     0.180029     0.180029
       5 "PEORIA 8" "5" 40.70572899999999810000 -89.65362399999999350000 ""     4.690527     4.690527
       6 "LOVINGTON" "6" 39.80135099999999680000 -88.73025900000000380000 ""     0.330045     0.330045
       7 "DECATUR 3" "7" 39.81707000000000110000 -88.92631699999999740000 ""     0.143431     0.143431
       8 "MASON CITY" "8" 40.17287999999999930000 -89.55845700000000420000 ""     0.983475     0.983475
       9 "BETHANY" "9" 39.52968400000000320000 -88.80059400000000380000 ""     0.232721     0.232721
      10 "RANKIN" "10" 40.43895700000000200000 -87.89072299999999420000 ""     1.304253     1.304253
      11 "WINDSOR" "11" 39.44056100000000240000 -88.61520899999999300000 ""     3.847649     3.847649
      12 "PEKIN 2" "12" 40.53934300000000230000 -89.61831999999999710000 ""     0.113281     0.113281
      13 "HEYWORTH" "13" 40.38125600000000050000 -89.06596899999999550000 ""     0.670451     0.670451
      14 "DECATUR 2" "14" 39.82758299999999710000 -89.04779999999999520000 ""     0.269364     0.269364
      15 "LINCOLN" "15" 40.21455600000000170000 -89.29925199999999560000 ""     0.834892     0.834892
      16 "SHERMAN" "16" 39.95804799999999800000 -89.51617199999999740000 ""     0.514976     0.514976
      17 "URBANA 2" "17" 40.10896600000000230000 -88.21102399999999480000 ""     0.133175     0.133175
      18 "SPRINGFIELD 8" "18" 39.91007299999999700000 -89.68770800000000060000 ""     0.782650     0.782650
      19 "CARLOCK" "19" 40.61044600000000320000 -89.12271699999999440000 ""     0.224166     0.224166
      20 "PLEASANT PLAINS" "20" 39.94597300000000220000 -89.92309600000000100000 ""     0.025976     0.025976
      21 "LE ROY" "21" 40.33968200000000340000 -88.75430099999999810000 ""     0.557208     0.557208
      22 "DECATUR 1" "22" 39.84409600000000040000 -88.95221600000000710000 ""     2.083841     2.083841
      23 "RANTOUL 2" "23" 40.31222199999999840000 -88.15944399999999350000 ""     0.312454     0.312454
      24 "MACON" "24" 39.76335499999999710000 -88.98932200000000140000 ""     0.332704     0.332704
      25 "ELLSWORTH 2" "25" 40.46451600000000330000 -88.74529499999999870000 ""     0.340860     0.340860
      26 "MOUNT PULASKI" "26" 39.98125399999999980000 -89.28353900000000460000 ""    11.643238    11.643238
      27 "WAPELLA" "27" 40.23288099999999900000 -89.09117100000000280000 ""     0.161311     0.161311
      28 "ROANOKE" "28" 40.85808300000000060000 -89.13520099999999500000 ""     0.188640     0.188640
      29 "GREEN VALLEY" "29" 40.41444099999999650000 -89.66607899999999630000 ""     0.012608     0.012608
      30 "BLOOMINGTON 3" "30" 40.40230999999999990000 -88.84056099999999390000 ""     0.094277     0.094277
      31 "SPRINGFIELD 7" "31" 39.81805500000000110000 -89.45596500000000620000 ""     0.184372     0.184372
      32 "BEMENT" "32" 39.94196099999999920000 -88.80535700000000080000 ""     0.260188     0.260188
      33 "PAXTON 1" "33" 40.46405000000000030000 -88.02151700000000290000 ""     0.085503     0.085503
      34 "MOUNT ZION" "34" 39.77029999999999890000 -88.86969999999999460000 ""     0.539885     0.539885
      35 "RANTOUL 1" "35" 40.29887300000000040000 -88.30026300000000110000 ""     0.094469     0.094469
      36 "BRIMFIELD" "36" 40.79419999999999650000 -89.84359999999999500000 ""     0.144228     0.144228
      37 "WELDON" "37" 40.03307800000000330000 -88.71650800000000460000 ""     0.437479     0.437479
      38 "GIBSON CITY 2" "38" 40.46784900000000110000 -88.35199699999999720000 ""     0.076145     0.076145
      39 "MINIER" "39" 40.35075700000000150000 -89.32348299999999600000 ""     0.074123     0.074123
      40 "HUDSON" "40" 40.61948600000000200000 -88.99115500000000620000 ""     0.098439     0.098439
      41 "ATHENS" "41" 39.99743200000000340000 -89.66594100000000370000 ""     0.019517     0.019517
      42 "PEORIA HEIGHTS" "42" 40.74672600000000240000 -89.57164099999999960000 ""     0.445789     0.445789
      43 "SPRINGFIELD 6" "43" 39.77349799999999650000 -89.68384000000000360000 ""     4.308385     4.308385
      44 "CLINTON 3" "44" 40.12083299999999750000 -88.96111100000000250000 ""     0.421834     0.421834
      45 "TUSCOLA 2" "45" 39.79817500000000050000 -88.34977100000000400000 ""     0.172825     0.172825
      46 "KENNEY" "46" 40.09284900000000110000 -89.11622199999999340000 ""     0.310260     0.310260
      47 "MANSFIELD" "47" 40.13771700000000210000 -88.62916599999999790000 ""     0.048766     0.048766
      48 "MANITO" "48" 40.35813900000000130000 -89.89656600000000710000 ""     0.098482     0.098482
      49 "DUNLAP" "49" 40.84848000000000210000 -89.66907799999999900000 ""     0.666949     0.666949
      50 "CHAMPAIGN 3" "50" 40.10964599999999790000 -88.27490299999999480000 ""     3.659688     3.659688
      51 "PEORIA 7" "51" 40.69761799999999850000 -89.61269900000000630000 ""     0.852478     0.852478
      52 "ELLSWORTH 1" "52" 40.47919999999999870000 -88.79890000000000330000 ""     0.130581     0.130581
      53 "TOWANDA" "53" 40.56651600000000000000 -88.87448999999999440000 ""     0.944558     0.944558
      54 "BLOOMINGTON 2" "54" 40.47112700000000270000 -88.94453799999999430000 ""     0.049000     0.049000
      55 "PRINCEVILLE" "55" 40.93869699999999770000 -89.93947799999999400000 ""     0.622750     0.622750
      56 "DELAVAN" "56" 40.29671100000000190000 -89.47145299999999680000 ""     2.533983     2.533983
      57 "PEORIA 6" "57" 40.69980699999999980000 -89.61151399999999970000 ""     0.133802     0.133802
      58 "SAVOY" "58" 40.04575599999999720000 -88.25944400000000200000 ""     0.321915     0.321915
      59 "NORMAL 2" "59" 40.53699999999999900000 -89.01900000000000550000 ""     2.474668     2.474668
      60 "EAST PEORIA" "60" 40.71323600000000200000 -89.53581599999999700000 ""     0.113781     0.113781
      61 "HANNA CITY" "61" 40.68942500000000000000 -89.79378199999999310000 ""     0.476917     0.476917
      62 "METAMORA" "62" 40.87071000000000250000 -89.35349399999999780000 ""     0.133677     0.133677
      63 "GREENVIEW" "63" 40.09275000000000230000 -89.72401700000000350000 ""     0.189280     0.189280
      64 "CLINTON 2" "64" 40.20063900000000250000 -88.81479799999999610000 ""     0.929633     0.929633
      65 "BARTONVILLE" "65" 40.59579999999999700000 -89.66310000000000000000 ""     0.096798     0.096798
      66 "NORMAL 1" "66" 40.52908300000000000000 -88.95893700000000590000 ""     0.221480     0.221480
      67 "LEXINGTON" "67" 40.62972500000000050000 -88.78800099999999420000 ""     0.214851     0.214851
      68 "PEORIA 5" "68" 40.73789299999999970000 -89.68678099999999630000 ""     0.377821     0.377821
      69 "MORTON" "69" 40.61885800000000300000 -89.33689900000000250000 ""     0.070864     0.070864
      70 "PEKIN 1" "70" 40.54079999999999730000 -89.67860000000000300000 ""     0.261543     0.261543
      71 "NIANTIC" "71" 39.85537399999999760000 -89.15892700000000560000 ""     0.362650     0.362650
      72 "COLFAX" "72" 40.55467000000000160000 -88.51446799999999370000 ""     0.943895     0.943895
      73 "EL PASO" "73" 40.74498400000000230000 -89.02998599999999380000 ""     0.631813     0.631813
      74 "TREMONT" "74" 40.51162699999999720000 -89.48221999999999810000 ""     0.152907     0.152907
      75 "PEORIA 4" "75" 40.67456800000000070000 -89.60858700000000000000 ""     0.138470     0.138470
      76 "PEORIA 3" "76" 40.75913599999999800000 -89.60412300000000130000 ""     0.214578     0.214578
      77 "CHAMPAIGN 2" "77" 40.13648100000000340000 -88.30530699999999910000 ""     0.121542     0.121542
      78 "EUREKA" "78" 40.71437000000000240000 -89.26010499999999580000 ""     0.629120     0.629120
      79 "CHATHAM" "79" 39.66801399999999940000 -89.82698800000000010000 ""     0.479300     0.479300
      80 "HOPEDALE 2" "80" 40.36919999999999930000 -89.40219999999999340000 ""     4.750902     4.750902
      81 "WASHINGTON" "81" 40.70414600000000150000 -89.41788900000000240000 ""     0.308712     0.308712
      82 "SPRINGFIELD 5" "82" 39.75732699999999650000 -89.60051199999999480000 ""     2.000911     2.000911
      83 "PEORIA 2" "83" 40.62713500000000270000 -89.68513199999999590000 ""     0.362135     0.362135
      84 "MT ZION" "84" 39.71910499999999900000 -88.84052800000000620000 ""     0.174617     0.174617
      85 "BUFFALO" "85" 39.92879599999999840000 -89.39531999999999810000 ""     0.274467     0.274467
      86 "SPRINGFIELD 4" "86" 39.82330000000000320000 -89.58910000000000200000 ""     0.656165     0.656165
      87 "CONGERVILLE" "87" 40.62864700000000080000 -89.22128899999999870000 ""     0.281495     0.281495
      88 "CHAMPAIGN 1" "88" 40.10516899999999650000 -88.24152800000000240000 ""     0.329965     0.329965
      89 "FISHER" "89" 40.32950799999999700000 -88.53087700000000380000 ""     0.265357     0.265357
      90 "HOMER" "90" 39.91612200000000140000 -87.91479099999999390000 ""     0.169517     0.169517
      91 "TUSCOLA 1" "91" 39.90525499999999680000 -88.27847199999999360000 ""     0.197405     0.197405
      92 "WHITE HEATH" "92" 40.08915999999999970000 -88.47781399999999510000 ""     4.795298     4.795298
      93 "TOLONO" "93" 39.97506400000000330000 -88.15272299999999460000 ""     0.141514     0.141514
      94 "SPRINGFIELD 3" "94" 39.76546600000000350000 -89.72932600000000040000 ""     3.178203     3.178203
      95 "MACKINAW" "95" 40.43067700000000290000 -89.20394500000000450000 ""     0.075479     0.075479
      96 "URBANA 1" "96" 40.13149800000000060000 -88.15676999999999450000 ""     0.429637     0.429637
      97 "SAINT JOSEPH" "97" 40.13389600000000000000 -88.03912200000000610000 ""     0.110925     0.110925
      98 "SPRINGFIELD 2" "98" 39.80686800000000150000 -89.64165300000000510000 ""     0.095060     0.095060
      99 "MONTICELLO" "99" 39.96081999999999820000 -88.43472400000000280000 ""     0.171711     0.171711
     100 "AUBURN" "100" 39.56028599999999780000 -89.67512299999999920000 ""     0.954188     0.954188
     101 "HOPEDALE 1" "101" 40.41621899999999810000 -89.43547999999999830000 ""     0.113695     0.113695
     102 "CLINTON 1" "102" 40.17190000000000080000 -88.83389999999999990000 ""     0.448058     0.448058
     103 "MAHOMET" "103" 40.21495600000000080000 -88.42117100000000110000 ""     0.083058     0.083058
     104 "VILLA GROVE" "104" 39.71419999999999820000 -87.89772499999999410000 ""     0.249408     0.249408
     105 "BLOOMINGTON 1" "105" 40.47677099999999940000 -88.99299499999999340000 ""     0.126952     0.126952
     106 "PEORIA 1" "106" 40.67654100000000030000 -89.63334600000000310000 ""     0.458504     0.458504
     107 "SPRINGFIELD 1" "107" 39.76244899999999660000 -89.62988400000000410000 ""     0.229707     0.229707
     108 "GIBSON CITY 1" "108" 40.47050000000000120000 -88.39870000000000520000 ""     0.086653     0.086653
     109 "MAPLETON" "109" 40.55640300000000310000 -89.76207300000000090000 ""     0.096593     0.096593
     110 "GIFFORD" "110" 40.30602700000000030000 -87.95860600000000320000 ""     3.983067     3.983067
     111 "PETERSBURG" "111" 40.16993099999999830000 -89.98653699999999840000 ""     0.049760     0.049760
}
DATA (Limit_Monitoring_Options_Value, [VariableName,ValueField])
{
"LMS_IgnoreRadial"                 "NO"
}
DATA (LimitSet, [LSName,LSDisabled,DataMaintainerAssign,LSAmpMVA,LSEndMonitor,LSLinePercent,
   LSInterfacePercent,LSLineRateSet,LSInterfaceRateSet,LSLineRateSet:1,
   LSInterfaceRateSet:1,LSPUHigh,LSPULow,LSCtgPUHigh,LSCtgPULow,LSBusHighRateSet,
   LSBusLowRateSet,LSCtgBusHighRateSet,LSCtgBusLowRateSet])
{
"Default" "NO " "" "MVA" "Higher" 100.0000 100.0000 "A" "A" "A" "A" 1.100000 0.900000 1.100000 0.900000 "A" "A" "A" "A"
}
DATA (RatingSetNameBus, [Name,Header,Description])
{
"A" "" ""
"B" "" ""
"C" "" ""
"D" "" ""
}
DATA (RatingSetNameBranch, [Name,Header,Description])
{
"A" "" ""
"B" "" ""
"C" "" ""
"D" "" ""
"E" "" ""
"F" "" ""
"G" "" ""
"H" "" ""
"I" "" ""
"J" "" ""
"K" "" ""
"L" "" ""
"M" "" ""
"N" "" ""
"O" "" ""
}
DATA (RatingSetNameInterface, [Name,Header,Description])
{
"A" "" ""
"B" "" ""
"C" "" ""
"D" "" ""
"E" "" ""
"F" "" ""
"G" "" ""
"H" "" ""
"I" "" ""
"J" "" ""
"K" "" ""
"L" "" ""
"M" "" ""
"N" "" ""
"O" "" ""
}
DATA (Bus, [BusNum,BusName,BusNomVolt,BusSlack,BusB:1,BusG:1,BusPUVolt,BusAngle,
   DCLossMultiplier,AreaNum,ZoneNum,BANumber,OwnerNum,SubNum,Latitude:1,
   Longitude:1,BusMonEle,LSName,BusVoltLim,BusVoltLimLow:1,BusVoltLimLow:2,
   BusVoltLimLow:3,BusVoltLimLow:4,BusVoltLimHigh:1,BusVoltLimHigh:2,
   BusVoltLimHigh:3,BusVoltLimHigh:4,Latitude,Longitude,TopologyBusType,Priority,
   EMSType,EMSDeviceID,DataMaintainerAssign,AllLabels,GICConductance])
{
     1 "CREVE COEUR 0" 115.00000000000000000000 "NO " 0.00000000000000000000 0.00000000000000000000 0.99996724932576741600 -76.66506520866829530000 1.00000000000000000000      1      2      1      1 1    40.642116   -89.599560 "YES" "Default" "NO " "" "" "" "" "" "" "" "" "" "" "BusbarSection" 0 "" "" "" "" ""
     2 "CREVE COEUR 1" 115.00000000000000000000 "NO " 0.00000000000000000000 0.00000000000000000000 0.99979138038328641000 -76.68457808402476420000 1.00000000000000000000      1      2      2      1 1    40.642116   -89.599560 "YES" "Default" "NO " "" "" "" "" "" "" "" "" "" "" "BusbarSection" 0 "" "" "" "" ""
     3 "ILLIOPOLIS 0" 115.00000000000000000000 "NO " 0.00000000000000000000 0.00000000000000000000 1.01784076610521335000 -77.96872541936606640000 1.00000000000000000000      1      4      3      1 2    39.866030   -89.251291 "YES" "Default" "NO " "" "" "" "" "" "" "" "" "" "" "BusbarSection" 0 "" "" "" "" ""
     4 "ILLIOPOLIS 1" 115.00000000000000000000 "NO " 0.00000000000000000000 0.00000000000000000000 1.01780083083282302000 -77.97338611561647780000 1.00000000000000000000      1      4      4      1 2    39.866030   -89.251291 "YES" "Default" "NO " "" "" "" "" "" "" "" "" "" "" "BusbarSection" 0 "" "" "" "" ""
     5 "PAXTON 2 0"   115.00000000000000000000 "NO " 0.00000000000000000000 0.00000000000000000000 1.02630267304981659000 -81.89084902819935510000 1.00000000000000000000      1      6      5      1 3    40.378337   -88.105151 "YES" "Default" "NO " "" "" "" "" "" "" "" "" "" "" "BusbarSection" 0 "" "" "" "" ""
     6 "PAXTON 2 1"   115.00000000000000000000 "NO " 0.00000000000000000000 0.00000000000000000000 1.02612919980575268000 -81.90933109181221990000 1.00000000000000000000      1      6      6      1 3    40.378337   -88.105151 "YES" "Default" "NO " "" "" "" "" "" "" "" "" "" "" "BusbarSection" 0 "" "" "" "" ""
     7 "PEORIA 9 0"   115.00000000000000000000 "NO " 0.00000000000000000000 0.00000000000000000000 0.99051863864911604600 -77.82997705546827660000 1.00000000000000000000      1      2      7      1 4    40.712882   -89.576722 "YES" "Default" "NO " "" "" "" "" "" "" "" "" "" "" "BusbarSection" 0 "" "" "" "" ""
     8 "PEORIA 9 1"   115.00000000000000000000 "NO " 0.00000000000000000000 0.00000000000000000000 0.98997614679319534400 -77.89110423566758360000 1.00000000000000000000      1      2      8      1 4    40.712882   -89.576722 "YES" "Default" "NO " "" "" "" "" "" "" "" "" "" "" "BusbarSection" 0 "" "" "" "" ""
     9 "PEORIA 8 0"   115.00000000000000000000 "NO " 0.00000000000000000000 0.00000000000000000000 0.99494534695330594200 -77.17996888086435090000 1.00000000000000000000      1      2      9      1 5    40.705729   -89.653624 "YES" "Default" "NO " "" "" "" "" "" "" "" "" "" "" "BusbarSection" 0 "" "" "" "" ""
    10 "PEORIA 8 1"   115.00000000000000000000 "NO " 0.00000000000000000000 0.00000000000000000000 0.99386315563831750800 -77.31763784055424080000 1.00000000000000000000      1      2     10      1 5    40.705729   -89.653624 "YES" "Default" "NO " "" "" "" "" "" "" "" "" "" "" "BusbarSection" 0 "" "" "" "" ""
    11 "LOVINGTON 0"  115.00000000000000000000 "NO " 0.00000000000000000000 0.00000000000000000000 1.03650675614552124000 -76.28775380201503250000 1.00000000000000000000      1      4     11      1 6    39.801351   -88.730259 "YES" "Default" "NO " "" "" "" "" "" "" "" "" "" "" "BusbarSection" 0 "" "" "" "" ""
    12 "LOVINGTON 1"  115.00000000000000000000 "NO " 0.00000000000000000000 0.00000000000000000000 1.03649961868844054000 -76.28861972207225510000 1.00000000000000000000      1      4     12      1 6    39.801351   -88.730259 "YES" "Default" "NO " "" "" "" "" "" "" "" "" "" "" "BusbarSection" 0 "" "" "" "" ""
    13 "LOVINGTON 2"  115.00000000000000000000 "NO " 0.00000000000000000000 0.00000000000000000000 1.03644324605878291000 -76.29506440968795290000 1.00000000000000000000      1      4     13      1 6    39.801351   -88.730259 "YES" "Default" "NO " "" "" "" "" "" "" "" "" "" "" "BusbarSection" 0 "" "" "" "" ""
    14 "DECATUR 3 0"  230.00000000000000000000 "NO " 0.00000000000000000000 0.00000000000000000000 1.03577044680726704000 -74.96509676032557930000 1.00000000000000000000      1      4     14      1 7    39.817070   -88.926317 "YES" "Default" "NO " "" "" "" "" "" "" "" "" "" "" "BusbarSection" 0 "" "" "" "" ""
    15 "DECATUR 3 1"  115.00000000000000000000 "NO " 0.00000000000000000000 0.00000000000000000000 1.03805485388238505000 -76.09226987015973980000 1.00000000000000000000      1      4     15      1 7    39.817070   -88.926317 "YES" "Default" "NO " "" "" "" "" "" "" "" "" "" "" "BusbarSection" 0 "" "" "" "" ""
    16 "DECATUR 3 2"  115.00000000000000000000 "NO " 0.00000000000000000000 0.00000000000000000000 1.03705178528281339000 -76.20701503935997320000 1.00000000000000000000      1      4     16      1 7    39.817070   -88.926317 "YES" "Default" "NO " "" "" "" "" "" "" "" "" "" "" "BusbarSection" 0 "" "" "" "" ""
    17 "MASON CITY 0" 115.00000000000000000000 "NO " 0.00000000000000000000 0.00000000000000000000 1.00594727113456806000 -79.52896985681401530000 1.00000000000000000000      1      4     17      1 8    40.172880   -89.558457 "YES" "Default" "NO " "" "" "" "" "" "" "" "" "" "" "BusbarSection" 0 "" "" "" "" ""
    18 "MASON CITY 1" 115.00000000000000000000 "NO " 0.00000000000000000000 0.00000000000000000000 1.00592904304424557000 -79.53139121315724940000 1.00000000000000000000      1      4     18      1 8    40.172880   -89.558457 "YES" "Default" "NO " "" "" "" "" "" "" "" "" "" "" "BusbarSection" 0 "" "" "" "" ""
    19 "MASON CITY 2" 115.00000000000000000000 "NO " 0.00000000000000000000 0.00000000000000000000 1.00593042699884538000 -79.53099104155252520000 1.00000000000000000000      1      4     19      1 8    40.172880   -89.558457 "YES" "Default" "NO " "" "" "" "" "" "" "" "" "" "" "BusbarSection" 0 "" "" "" "" ""
    20 "MASON CITY 3" 115.00000000000000000000 "NO " 0.00000000000000000000 0.00000000000000000000 1.00591920416098501000 -79.53217853064289500000 1.00000000000000000000      1      4     20      1 8    40.172880   -89.558457 "YES" "Default" "NO " "" "" "" "" "" "" "" "" "" "" "BusbarSection" 0 "" "" "" "" ""
    21 "MASON CITY 4" 115.00000000000000000000 "NO " 0.00000000000000000000 0.00000000000000000000 1.00582091006925745000 -79.54450790279096850000 1.00000000000000000000      1      4     21      1 8    40.172880   -89.558457 "YES" "Default" "NO " "" "" "" "" "" "" "" "" "" "" "BusbarSection" 0 "" "" "" "" ""
    22 "BETHANY 0"    115.00000000000000000000 "NO " 0.00000000000000000000 0.00000000000000000000 1.03560265769457005000 -76.30480351054380610000 1.00000000000000000000      1      4     22      1 9    39.529684   -88.800594 "YES" "Default" "NO " "" "" "" "" "" "" "" "" "" "" "BusbarSection" 0 "" "" "" "" ""
    23 "BETHANY 1"    115.00000000000000000000 "NO " 0.00000000000000000000 0.00000000000000000000 1.03556956909403453000 -76.30843819922665720000 1.00000000000000000000      1      4     23      1 9    39.529684   -88.800594 "YES" "Default" "NO " "" "" "" "" "" "" "" "" "" "" "BusbarSection" 0 "" "" "" "" ""
    24 "BETHANY 2"    115.00000000000000000000 "NO " 0.00000000000000000000 0.00000000000000000000 1.03554543108733932000 -76.31062407183461000000 1.00000000000000000000      1      4     24      1 9    39.529684   -88.800594 "YES" "Default" "NO " "" "" "" "" "" "" "" "" "" "" "BusbarSection" 0 "" "" "" "" ""
    25 "RANKIN 0"     115.00000000000000000000 "NO " 0.00000000000000000000 0.00000000000000000000 1.02673043045129253000 -82.15200296163764900000 1.00000000000000000000      1      6     25      1 10    40.438957   -87.890723 "YES" "Default" "NO " "" "" "" "" "" "" "" "" "" "" "BusbarSection" 0 "" "" "" "" ""
    26 "RANKIN 1"     115.00000000000000000000 "NO " 0.00000000000000000000 0.00000000000000000000 1.02670378880533786000 -82.15490260491229440000 1.00000000000000000000      1      6     26      1 10    40.438957   -87.890723 "YES" "Default" "NO " "" "" "" "" "" "" "" "" "" "" "BusbarSection" 0 "" "" "" "" ""
    27 "WINDSOR 0"    115.00000000000000000000 "NO " 0.00000000000000000000 0.00000000000000000000 1.03615649627251871000 -76.47558399359988360000 1.00000000000000000000      1      4     27      1 11    39.440561   -88.615209 "YES" "Default" "NO " "" "" "" "" "" "" "" "" "" "" "BusbarSection" 0 "" "" "" "" ""
    28 "WINDSOR 1"    115.00000000000000000000 "NO " 0.00000000000000000000 0.00000000000000000000 1.03609527099482612000 -76.48306832388618660000 1.00000000000000000000      1      4     28      1 11    39.440561   -88.615209 "YES" "Default" "NO " "" "" "" "" "" "" "" "" "" "" "BusbarSection" 0 "" "" "" "" ""
    29 "PEKIN 2 0"    115.00000000000000000000 "NO " 0.00000000000000000000 0.00000000000000000000 0.99983333243554850500 -76.34016577072385700000 1.00000000000000000000      1      2     29      1 12    40.539343   -89.618320 "YES" "Default" "NO " "" "" "" "" "" "" "" "" "" "" "BusbarSection" 0 "" "" "" "" ""
    30 "PEKIN 2 1"    115.00000000000000000000 "NO " 0.00000000000000000000 0.00000000000000000000 0.99845492278633751800 -76.48590260310128030000 1.00000000000000000000      1      2     30      1 12    40.539343   -89.618320 "YES" "Default" "NO " "" "" "" "" "" "" "" "" "" "" "BusbarSection" 0 "" "" "" "" ""
    31 "HEYWORTH 0"   115.00000000000000000000 "NO " 0.00000000000000000000 0.00000000000000000000 0.99921036743315372300 -81.46519607492362520000 1.00000000000000000000      1      7     31      1 13    40.381256   -89.065969 "YES" "Default" "NO " "" "" "" "" "" "" "" "" "" "" "BusbarSection" 0 "" "" "" "" ""
    32 "HEYWORTH 1"   115.00000000000000000000 "NO " 0.00000000000000000000 0.00000000000000000000 0.99919794937237183000 -81.46667905843375480000 1.00000000000000000000      1      7     32      1 13    40.381256   -89.065969 "YES" "Default" "NO " "" "" "" "" "" "" "" "" "" "" "BusbarSection" 0 "" "" "" "" ""
    33 "HEYWORTH 2"   115.00000000000000000000 "NO " 0.00000000000000000000 0.00000000000000000000 0.99907271460569269100 -81.48278645686635000000 1.00000000000000000000      1      7     33      1 13    40.381256   -89.065969 "YES" "Default" "NO " "" "" "" "" "" "" "" "" "" "" "BusbarSection" 0 "" "" "" "" ""
    34 "DECATUR 2 0"  115.00000000000000000000 "NO " 0.00000000000000000000 0.00000000000000000000 1.02223783023218706000 -77.11431871597790180000 1.00000000000000000000      1      4     34      1 14    39.827583   -89.047800 "YES" "Default" "NO " "" "" "" "" "" "" "" "" "" "" "BusbarSection" 0 "" "" "" "" ""
    35 "DECATUR 2 1"  115.00000000000000000000 "NO " 0.00000000000000000000 0.00000000000000000000 1.02171528409054613000 -77.17760288790989880000 1.00000000000000000000      1      4     35      1 14    39.827583   -89.047800 "YES" "Default" "NO " "" "" "" "" "" "" "" "" "" "" "BusbarSection" 0 "" "" "" "" ""
    36 "LINCOLN 0"    115.00000000000000000000 "NO " 0.00000000000000000000 0.00000000000000000000 1.00570176161589364000 -81.47134168065069560000 1.00000000000000000000      1      7     36      1 15    40.214556   -89.299252 "YES" "Default" "NO " "" "" "" "" "" "" "" "" "" "" "BusbarSection" 0 "" "" "" "" ""
    37 "LINCOLN 1"    115.00000000000000000000 "NO " 0.00000000000000000000 0.00000000000000000000 1.00562905125115032000 -81.48009455862576540000 1.00000000000000000000      1      7     37      1 15    40.214556   -89.299252 "YES" "Default" "NO " "" "" "" "" "" "" "" "" "" "" "BusbarSection" 0 "" "" "" "" ""
    38 "LINCOLN 2"    115.00000000000000000000 "NO " 0.00000000000000000000 0.00000000000000000000 1.00502477834338100000 -81.54788284370407320000 1.00000000000000000000      1      7     38      1 15    40.214556   -89.299252 "YES" "Default" "NO " "" "" "" "" "" "" "" "" "" "" "BusbarSection" 0 "" "" "" "" ""
    39 "SHERMAN 0"    115.00000000000000000000 "NO " 0.00000000000000000000 0.00000000000000000000 1.00876769478725792000 -79.38823993943944400000 1.00000000000000000000      1      4     39      1 16    39.958048   -89.516172 "YES" "Default" "NO " "" "" "" "" "" "" "" "" "" "" "BusbarSection" 0 "" "" "" "" ""
    40 "SHERMAN 1"    115.00000000000000000000 "NO " 0.00000000000000000000 0.00000000000000000000 1.00872309098804092000 -79.39363375777600140000 1.00000000000000000000      1      4     40      1 16    39.958048   -89.516172 "YES" "Default" "NO " "" "" "" "" "" "" "" "" "" "" "BusbarSection" 0 "" "" "" "" ""
    41 "URBANA 2 0"   115.00000000000000000000 "NO " 0.00000000000000000000 0.00000000000000000000 1.01772382834010156000 -83.45950090081642260000 1.00000000000000000000      1      5     41      1 17    40.108966   -88.211024 "YES" "Default" "NO " "" "" "" "" "" "" "" "" "" "" "BusbarSection" 0 "" "" "" "" ""
    42 "SPRINGFIELD 8 0" 115.00000000000000000000 "NO " 0.00000000000000000000 0.00000000000000000000 1.01907117709730488000 -77.42847936303887480000 1.00000000000000000000      1      4     42      1 18    39.910073   -89.687708 "YES" "Default" "NO " "" "" "" "" "" "" "" "" "" "" "BusbarSection" 0 "" "" "" "" ""
    43 "CARLOCK 0"    115.00000000000000000000 "NO " 0.00000000000000000000 0.00000000000000000000 0.99457451910369221200 -79.88076442463143680000 1.00000000000000000000      1      2     43      1 19    40.610446   -89.122717 "YES" "Default" "NO " "" "" "" "" "" "" "" "" "" "" "BusbarSection" 0 "" "" "" "" ""
    44 "PLEASANT PLAINS 0" 115.00000000000000000000 "NO " 0.00000000000000000000 0.00000000000000000000 1.01498740106400676000 -77.55740550005509700000 1.00000000000000000000      1      4     44      1 20    39.945973   -89.923096 "YES" "Default" "NO " "" "" "" "" "" "" "" "" "" "" "BusbarSection" 0 "" "" "" "" ""
    45 "LE ROY 0"     230.00000000000000000000 "NO " 0.00000000000000000000 0.00000000000000000000 1.02819755210176367000 -75.64319033065946480000 1.00000000000000000000      1      7     45      1 21    40.339682   -88.754301 "YES" "Default" "NO " "" "" "" "" "" "" "" "" "" "" "BusbarSection" 0 "" "" "" "" ""
    46 "LE ROY 1"     115.00000000000000000000 "NO " 0.00000000000000000000 0.00000000000000000000 1.02571847082153567000 -76.43324311980254040000 1.00000000000000000000      1      7     46      1 21    40.339682   -88.754301 "YES" "Default" "NO " "" "" "" "" "" "" "" "" "" "" "BusbarSection" 0 "" "" "" "" ""
    47 "DECATUR 1 0"  115.00000000000000000000 "NO " 0.00000000000000000000 0.00000000000000000000 1.03336399308404969000 -75.49308423137814830000 1.00000000000000000000      1      4     47      1 22    39.844096   -88.952216 "YES" "Default" "NO " "" "" "" "" "" "" "" "" "" "" "BusbarSection" 0 "" "" "" "" ""
    48 "RANTOUL 2 0"  115.00000000000000000000 "NO " 0.00000000000000000000 0.00000000000000000000 1.02561654773050503000 -81.84897965511437690000 1.00000000000000000000      1      6     48      1 23    40.312222   -88.159444 "YES" "Default" "NO " "" "" "" "" "" "" "" "" "" "" "BusbarSection" 0 "" "" "" "" ""
    49 "RANTOUL 2 1"  13.80000019073486330000 "NO " 0.00000000000000000000 0.00000000000000000000 1.03737250839303630000 -80.58185894585764690000 1.00000000000000000000      1      6     49      1 23    40.312222   -88.159444 "YES" "Default" "NO " "" "" "" "" "" "" "" "" "" "" "BusbarSection" 0 "" "" "" "" ""
    50 "RANTOUL 2 2"  13.80000019073486330000 "NO " 0.00000000000000000000 0.00000000000000000000 1.03466454270841535000 -80.88513240995492030000 1.00000000000000000000      1      6     50      1 23    40.312222   -88.159444 "YES" "Default" "NO " "" "" "" "" "" "" "" "" "" "" "BusbarSection" 0 "" "" "" "" ""
    51 "RANTOUL 2 3"  13.80000019073486330000 "NO " 0.00000000000000000000 0.00000000000000000000 1.03891053020703361000 -80.38712628006295800000 1.00000000000000000000      1      6     51      1 23    40.312222   -88.159444 "YES" "Default" "NO " "" "" "" "" "" "" "" "" "" "" "BusbarSection" 0 "" "" "" "" ""
    52 "RANTOUL 2 4"  13.80000019073486330000 "NO " 0.00000000000000000000 0.00000000000000000000 1.03418923565372944000 -80.94428154288304710000 1.00000000000000000000      1      6     52      1 23    40.312222   -88.159444 "YES" "Default" "NO " "" "" "" "" "" "" "" "" "" "" "BusbarSection" 0 "" "" "" "" ""
    53 "RANTOUL 2 5"  13.80000019073486330000 "NO " 0.00000000000000000000 0.00000000000000000000 1.03999996185651966000 -79.06715663836023110000 1.00000000000000000000      1      6     53      1 23    40.312222   -88.159444 "YES" "Default" "NO " "" "" "" "" "" "" "" "" "" "" "BusbarSection" 0 "" "" "" "" ""
    54 "MACON 0"      115.00000000000000000000 "NO " 0.00000000000000000000 0.00000000000000000000 1.03033827663576427000 -75.91992053930373170000 1.00000000000000000000      1      4     54      1 24    39.763355   -88.989322 "YES" "Default" "NO " "" "" "" "" "" "" "" "" "" "" "BusbarSection" 0 "" "" "" "" ""
    55 "ELLSWORTH 2 0" 230.00000000000000000000 "NO " 0.00000000000000000000 0.00000000000000000000 1.02538713718082164000 -76.49044938156029620000 1.00000000000000000000      1      7     55      1 25    40.464516   -88.745295 "YES" "Default" "NO " "" "" "" "" "" "" "" "" "" "" "BusbarSection" 0 "" "" "" "" ""
    56 "ELLSWORTH 2 1" 115.00000000000000000000 "NO " 0.00000000000000000000 0.00000000000000000000 1.02351730886385583000 -76.78413008793269510000 1.00000000000000000000      1      7     56      1 25    40.464516   -88.745295 "YES" "Default" "NO " "" "" "" "" "" "" "" "" "" "" "BusbarSection" 0 "" "" "" "" ""
    57 "MOUNT PULASKI 0" 115.00000000000000000000 "NO " 0.00000000000000000000 0.00000000000000000000 1.01510109641141510000 -78.45429956645568840000 1.00000000000000000000      1      4     57      1 26    39.981254   -89.283539 "YES" "Default" "NO " "" "" "" "" "" "" "" "" "" "" "BusbarSection" 0 "" "" "" "" ""
    58 "WAPELLA 0"    115.00000000000000000000 "NO " 0.00000000000000000000 0.00000000000000000000 1.01297692319159749000 -81.28404898939180610000 1.00000000000000000000      1      7     58      1 27    40.232881   -89.091171 "YES" "Default" "NO " "" "" "" "" "" "" "" "" "" "" "BusbarSection" 0 "" "" "" "" ""
    59 "ROANOKE 0"    115.00000000000000000000 "NO " 0.00000000000000000000 0.00000000000000000000 0.99719632786551037900 -79.98063515616962600000 1.00000000000000000000      1      2     59      1 28    40.858083   -89.135201 "YES" "Default" "NO " "" "" "" "" "" "" "" "" "" "" "BusbarSection" 0 "" "" "" "" ""
    60 "GREEN VALLEY 0" 115.00000000000000000000 "NO " 0.00000000000000000000 0.00000000000000000000 1.01636914627071873000 -75.20270635377760020000 1.00000000000000000000      1      2     60      1 29    40.414441   -89.666079 "YES" "Default" "NO " "" "" "" "" "" "" "" "" "" "" "BusbarSection" 0 "" "" "" "" ""
    61 "BLOOMINGTON 3 0" 115.00000000000000000000 "NO " 0.00000000000000000000 0.00000000000000000000 1.02175799296406411000 -76.98211599085234980000 1.00000000000000000000      1      7     61      1 30    40.402310   -88.840561 "YES" "Default" "NO " "" "" "" "" "" "" "" "" "" "" "BusbarSection" 0 "" "" "" "" ""
    62 "SPRINGFIELD 7 0" 115.00000000000000000000 "NO " 0.00000000000000000000 0.00000000000000000000 1.01607803246444695000 -78.31253030976436950000 1.00000000000000000000      1      4     62      1 31    39.818055   -89.455965 "YES" "Default" "NO " "" "" "" "" "" "" "" "" "" "" "BusbarSection" 0 "" "" "" "" ""
    63 "BEMENT 0"     115.00000000000000000000 "NO " 0.00000000000000000000 0.00000000000000000000 1.02858865649950615000 -77.84810887699319440000 1.00000000000000000000      1      4     63      1 32    39.941961   -88.805357 "YES" "Default" "NO " "" "" "" "" "" "" "" "" "" "" "BusbarSection" 0 "" "" "" "" ""
    64 "PAXTON 1 0"   115.00000000000000000000 "NO " 0.00000000000000000000 0.00000000000000000000 1.02920732930175163000 -81.63096338647940800000 1.00000000000000000000      1      6     64      1 33    40.464050   -88.021517 "YES" "Default" "NO " "" "" "" "" "" "" "" "" "" "" "BusbarSection" 0 "" "" "" "" ""
    65 "PAXTON 1 1"   13.80000019073486330000 "NO " 0.00000000000000000000 0.00000000000000000000 1.03999996185699017000 -81.42102895853356870000 1.00000000000000000000      1      6     65      1 33    40.464050   -88.021517 "YES" "Default" "NO " "" "" "" "" "" "" "" "" "" "" "BusbarSection" 0 "" "" "" "" ""
    66 "MOUNT ZION 0" 115.00000000000000000000 "NO " 0.00000000000000000000 0.00000000000000000000 1.03672871977540781000 -74.99048638555318290000 1.00000000000000000000      1      4     66      1 34    39.770300   -88.869700 "YES" "Default" "NO " "" "" "" "" "" "" "" "" "" "" "BusbarSection" 0 "" "" "" "" ""
    67 "MOUNT ZION 1" 13.80000019073486330000 "NO " 0.00000000000000000000 0.00000000000000000000 1.03999996186080979000 -74.64760472131892750000 1.00000000000000000000      1      4     67      1 34    39.770300   -88.869700 "YES" "Default" "NO " "" "" "" "" "" "" "" "" "" "" "BusbarSection" 0 "" "" "" "" ""
    68 "MOUNT ZION 2" 13.80000019073486330000 "NO " 0.00000000000000000000 0.00000000000000000000 1.03999996185785992000 -71.06125501319520760000 1.00000000000000000000      1      4     68      1 34    39.770300   -88.869700 "YES" "Default" "NO " "" "" "" "" "" "" "" "" "" "" "BusbarSection" 0 "" "" "" "" ""
    69 "MOUNT ZION 3" 13.80000019073486330000 "NO " 0.00000000000000000000 0.00000000000000000000 1.03999996185883758000 -73.58716025215331060000 1.00000000000000000000      1      4     69      1 34    39.770300   -88.869700 "YES" "Default" "NO " "" "" "" "" "" "" "" "" "" "" "BusbarSection" 0 "" "" "" "" ""
    70 "MOUNT ZION 4" 13.80000019073486330000 "NO " 0.00000000000000000000 0.00000000000000000000 1.03999996185824717000 -72.03534930205943000000 1.00000000000000000000      1      4     70      1 34    39.770300   -88.869700 "YES" "Default" "NO " "" "" "" "" "" "" "" "" "" "" "BusbarSection" 0 "" "" "" "" ""
    71 "MOUNT ZION 5" 13.80000019073486330000 "NO " 0.00000000000000000000 0.00000000000000000000 1.03999996185881227000 -73.78665092502050980000 1.00000000000000000000      1      4     71      1 34    39.770300   -88.869700 "YES" "Default" "NO " "" "" "" "" "" "" "" "" "" "" "BusbarSection" 0 "" "" "" "" ""
    72 "MOUNT ZION 6" 13.80000019073486330000 "NO " 0.00000000000000000000 0.00000000000000000000 1.03999996185895682000 -73.89018080207853240000 1.00000000000000000000      1      4     72      1 34    39.770300   -88.869700 "YES" "Default" "NO " "" "" "" "" "" "" "" "" "" "" "BusbarSection" 0 "" "" "" "" ""
    73 "MOUNT ZION 7" 13.80000019073486330000 "NO " 0.00000000000000000000 0.00000000000000000000 1.03999996185869392000 -72.82315569493283650000 1.00000000000000000000      1      4     73      1 34    39.770300   -88.869700 "YES" "Default" "NO " "" "" "" "" "" "" "" "" "" "" "BusbarSection" 0 "" "" "" "" ""
    74 "RANTOUL 1 0"  115.00000000000000000000 "NO " 0.00000000000000000000 0.00000000000000000000 1.01752856257976831000 -82.48809000498265220000 1.00000000000000000000      1      6     74      1 35    40.298873   -88.300263 "YES" "Default" "NO " "" "" "" "" "" "" "" "" "" "" "BusbarSection" 0 "" "" "" "" ""
    75 "BRIMFIELD 0"  115.00000000000000000000 "NO " 0.00000000000000000000 0.00000000000000000000 1.01510029072199193000 -74.81448827130552100000 1.00000000000000000000      1      2     75      1 36    40.794200   -89.843600 "YES" "Default" "NO " "" "" "" "" "" "" "" "" "" "" "BusbarSection" 0 "" "" "" "" ""
    76 "BRIMFIELD 1"  13.80000019073486330000 "NO " 0.00000000000000000000 0.00000000000000000000 1.03103219367336174000 -74.34218617740910420000 1.00000000000000000000      1      2     76      1 36    40.794200   -89.843600 "YES" "Default" "NO " "" "" "" "" "" "" "" "" "" "" "BusbarSection" 0 "" "" "" "" ""
    77 "BRIMFIELD 2"  13.80000019073486330000 "NO " 0.00000000000000000000 0.00000000000000000000 1.03999996185450594000 -74.00830574173083680000 1.00000000000000000000      1      2     77      1 36    40.794200   -89.843600 "YES" "Default" "NO " "" "" "" "" "" "" "" "" "" "" "BusbarSection" 0 "" "" "" "" ""
    78 "BRIMFIELD 3"  13.80000019073486330000 "NO " 0.00000000000000000000 0.00000000000000000000 1.01510029072199193000 -74.81448827130552100000 1.00000000000000000000      1      2     78      1 36    40.794200   -89.843600 "YES" "Default" "NO " "" "" "" "" "" "" "" "" "" "" "BusbarSection" 0 "" "" "" "" ""
    79 "BRIMFIELD 4"  13.80000019073486330000 "NO " 0.00000000000000000000 0.00000000000000000000 1.01510029072199193000 -74.81448827130552100000 1.00000000000000000000      1      2     79      1 36    40.794200   -89.843600 "YES" "Default" "NO " "" "" "" "" "" "" "" "" "" "" "BusbarSection" 0 "" "" "" "" ""
    80 "WELDON 0"     115.00000000000000000000 "NO " 0.00000000000000000000 0.00000000000000000000 1.01987542250272023000 -82.05050327991877170000 1.00000000000000000000      1      5     80      1 37    40.033078   -88.716508 "YES" "Default" "NO " "" "" "" "" "" "" "" "" "" "" "BusbarSection" 0 "" "" "" "" ""
    81 "GIBSON CITY 2 0" 230.00000000000000000000 "NO " 0.00000000000000000000 0.00000000000000000000 1.02424326921746278000 -78.19493477904582340000 1.00000000000000000000      1      6     81      1 38    40.467849   -88.351997 "YES" "Default" "NO " "" "" "" "" "" "" "" "" "" "" "BusbarSection" 0 "" "" "" "" ""
    82 "GIBSON CITY 2 1" 115.00000000000000000000 "NO " 0.00000000000000000000 0.00000000000000000000 1.02471930982719317000 -79.51133521533698460000 1.00000000000000000000      1      6     82      1 38    40.467849   -88.351997 "YES" "Default" "NO " "" "" "" "" "" "" "" "" "" "" "BusbarSection" 0 "" "" "" "" ""
    83 "MINIER 0"     115.00000000000000000000 "NO " 0.00000000000000000000 0.00000000000000000000 1.01175455230760503000 -79.98673948923871540000 1.00000000000000000000      1      7     83      1 39    40.350757   -89.323483 "YES" "Default" "NO " "" "" "" "" "" "" "" "" "" "" "BusbarSection" 0 "" "" "" "" ""
    84 "HUDSON 0"     115.00000000000000000000 "NO " 0.00000000000000000000 0.00000000000000000000 0.99755875567654606100 -80.11375216598061400000 1.00000000000000000000      1      2     84      1 40    40.619486   -88.991155 "YES" "Default" "NO " "" "" "" "" "" "" "" "" "" "" "BusbarSection" 0 "" "" "" "" ""
    85 "ATHENS 0"     115.00000000000000000000 "NO " 0.00000000000000000000 0.00000000000000000000 1.00686815511806893000 -79.64422768124535420000 1.00000000000000000000      1      4     85      1 41    39.997432   -89.665941 "YES" "Default" "NO " "" "" "" "" "" "" "" "" "" "" "BusbarSection" 0 "" "" "" "" ""
    86 "PEORIA HEIGHTS 0" 115.00000000000000000000 "NO " 0.00000000000000000000 0.00000000000000000000 0.99245552027832706400 -77.51252504731314730000 1.00000000000000000000      1      2     86      1 42    40.746726   -89.571641 "YES" "Default" "NO " "" "" "" "" "" "" "" "" "" "" "BusbarSection" 0 "" "" "" "" ""
    87 "SPRINGFIELD 6 0" 230.00000000000000000000 "NO " 0.00000000000000000000 0.00000000000000000000 1.03024285804482085000 -73.72654140471929910000 1.00000000000000000000      1      3     87      1 43    39.773498   -89.683840 "YES" "Default" "NO " "" "" "" "" "" "" "" "" "" "" "BusbarSection" 0 "" "" "" "" ""
    88 "SPRINGFIELD 6 1" 115.00000000000000000000 "NO " 0.00000000000000000000 0.00000000000000000000 1.02629895150086403000 -75.58953285270759180000 1.00000000000000000000      1      3     88      1 43    39.773498   -89.683840 "YES" "Default" "NO " "" "" "" "" "" "" "" "" "" "" "BusbarSection" 0 "" "" "" "" ""
    89 "CLINTON 3 0"  115.00000000000000000000 "NO " 0.00000000000000000000 0.00000000000000000000 1.01595165362532036000 -80.39213595806988620000 1.00000000000000000000      1      7     89      1 44    40.120833   -88.961111 "YES" "Default" "NO " "" "" "" "" "" "" "" "" "" "" "BusbarSection" 0 "" "" "" "" ""
    90 "CLINTON 3 1"  13.80000019073486330000 "NO " 0.00000000000000000000 0.00000000000000000000 1.03999996185489141000 -79.24040817024088310000 1.00000000000000000000      1      7     90      1 44    40.120833   -88.961111 "YES" "Default" "NO " "" "" "" "" "" "" "" "" "" "" "BusbarSection" 0 "" "" "" "" ""
    91 "CLINTON 3 2"  13.80000019073486330000 "NO " 0.00000000000000000000 0.00000000000000000000 1.02876660433445499000 -80.01258192606618990000 1.00000000000000000000      1      7     91      1 44    40.120833   -88.961111 "YES" "Default" "NO " "" "" "" "" "" "" "" "" "" "" "BusbarSection" 0 "" "" "" "" ""
    92 "CLINTON 3 3"  13.80000019073486330000 "NO " 0.00000000000000000000 0.00000000000000000000 1.01595165362532036000 -80.39213595806988620000 1.00000000000000000000      1      7     92      1 44    40.120833   -88.961111 "YES" "Default" "NO " "" "" "" "" "" "" "" "" "" "" "BusbarSection" 0 "" "" "" "" ""
    93 "TUSCOLA 2 0"  115.00000000000000000000 "NO " 0.00000000000000000000 0.00000000000000000000 1.03487797490844624000 -77.36396619131113540000 1.00000000000000000000      1      4     93      1 45    39.798175   -88.349771 "YES" "Default" "NO " "" "" "" "" "" "" "" "" "" "" "BusbarSection" 0 "" "" "" "" ""
    94 "TUSCOLA 2 1"  13.80000019073486330000 "NO " 0.00000000000000000000 0.00000000000000000000 1.03999996185579935000 -74.68344053704878150000 1.00000000000000000000      1      4     94      1 45    39.798175   -88.349771 "YES" "Default" "NO " "" "" "" "" "" "" "" "" "" "" "BusbarSection" 0 "" "" "" "" ""
    95 "KENNEY 0"     115.00000000000000000000 "NO " 0.00000000000000000000 0.00000000000000000000 1.02351733465202499000 -80.95874319455971600000 1.00000000000000000000      1      7     95      1 46    40.092849   -89.116222 "YES" "Default" "NO " "" "" "" "" "" "" "" "" "" "" "BusbarSection" 0 "" "" "" "" ""
    96 "MANSFIELD 0"  115.00000000000000000000 "NO " 0.00000000000000000000 0.00000000000000000000 1.02262754158981273000 -78.13674462143534070000 1.00000000000000000000      1      7     96      1 47    40.137717   -88.629166 "YES" "Default" "NO " "" "" "" "" "" "" "" "" "" "" "BusbarSection" 0 "" "" "" "" ""
    97 "MANITO 0"     115.00000000000000000000 "NO " 0.00000000000000000000 0.00000000000000000000 1.01251125596907943000 -76.47249239984097360000 1.00000000000000000000      1      2     97      1 48    40.358139   -89.896566 "YES" "Default" "NO " "" "" "" "" "" "" "" "" "" "" "BusbarSection" 0 "" "" "" "" ""
    98 "DUNLAP 0"     230.00000000000000000000 "NO " 0.00000000000000000000 0.00000000000000000000 1.01182928847611819000 -73.86382117031270410000 1.00000000000000000000      1      2     98      1 49    40.848480   -89.669078 "YES" "Default" "NO " "" "" "" "" "" "" "" "" "" "" "BusbarSection" 0 "" "" "" "" ""
    99 "DUNLAP 1"     115.00000000000000000000 "NO " 0.00000000000000000000 0.00000000000000000000 1.00491987008970418000 -75.33143195347423670000 1.00000000000000000000      1      2     99      1 49    40.848480   -89.669078 "YES" "Default" "NO " "" "" "" "" "" "" "" "" "" "" "BusbarSection" 0 "" "" "" "" ""
   100 "CHAMPAIGN 3 0" 115.00000000000000000000 "NO " 0.00000000000000000000 0.00000000000000000000 1.02734196206333817000 -82.79023570190028640000 1.00000000000000000000      1      5    100      1 50    40.109646   -88.274903 "YES" "Default" "NO " "" "" "" "" "" "" "" "" "" "" "BusbarSection" 0 "" "" "" "" ""
   101 "PEORIA 7 0"   115.00000000000000000000 "NO " 0.00000000000000000000 0.00000000000000000000 0.99394099120228329700 -77.44178929141000370000 1.00000000000000000000      1      2    101      1 51    40.697618   -89.612699 "YES" "Default" "NO " "" "" "" "" "" "" "" "" "" "" "BusbarSection" 0 "" "" "" "" ""
   102 "ELLSWORTH 1 0" 230.00000000000000000000 "NO " 0.00000000000000000000 0.00000000000000000000 1.02667450666125259000 -76.28237033644511200000 1.00000000000000000000      1      7    102      1 52    40.479200   -88.798900 "YES" "Default" "NO " "" "" "" "" "" "" "" "" "" "" "BusbarSection" 0 "" "" "" "" ""
   103 "ELLSWORTH 1 1" 115.00000000000000000000 "NO " 0.00000000000000000000 0.00000000000000000000 1.02309146896733050000 -76.82380116085379030000 1.00000000000000000000      1      7    103      1 52    40.479200   -88.798900 "YES" "Default" "NO " "" "" "" "" "" "" "" "" "" "" "BusbarSection" 0 "" "" "" "" ""
   104 "ELLSWORTH 1 2" 13.80000019073486330000 "NO " 0.00000000000000000000 0.00000000000000000000 1.03999996185403121000 -75.45694804753608760000 1.00000000000000000000      1      7    104      1 52    40.479200   -88.798900 "YES" "Default" "NO " "" "" "" "" "" "" "" "" "" "" "BusbarSection" 0 "" "" "" "" ""
   105 "ELLSWORTH 1 3" 13.80000019073486330000 "NO " 0.00000000000000000000 0.00000000000000000000 1.03999996185395283000 -75.22299487853999270000 1.00000000000000000000      1      7    105      1 52    40.479200   -88.798900 "YES" "Default" "NO " "" "" "" "" "" "" "" "" "" "" "BusbarSection" 0 "" "" "" "" ""
   106 "TOWANDA 0"    115.00000000000000000000 "NO " 0.00000000000000000000 0.00000000000000000000 1.01875947551476442000 -77.22261031836507070000 1.00000000000000000000      1      7    106      1 53    40.566516   -88.874490 "YES" "Default" "NO " "" "" "" "" "" "" "" "" "" "" "BusbarSection" 0 "" "" "" "" ""
   107 "BLOOMINGTON 2 0" 115.00000000000000000000 "NO " 0.00000000000000000000 0.00000000000000000000 0.99385332774583012800 -81.22475184656882160000 1.00000000000000000000      1      7    107      1 54    40.471127   -88.944538 "YES" "Default" "NO " "" "" "" "" "" "" "" "" "" "" "BusbarSection" 0 "" "" "" "" ""
   108 "PRINCEVILLE 0" 115.00000000000000000000 "NO " 0.00000000000000000000 0.00000000000000000000 1.01016425784048880000 -75.61012369148834010000 1.00000000000000000000      1      2    108      1 55    40.938697   -89.939478 "YES" "Default" "NO " "" "" "" "" "" "" "" "" "" "" "BusbarSection" 0 "" "" "" "" ""
   109 "DELAVAN 0"    115.00000000000000000000 "NO " 0.00000000000000000000 0.00000000000000000000 1.00803706341233701000 -78.98891135246469730000 1.00000000000000000000      1      4    109      1 56    40.296711   -89.471453 "YES" "Default" "NO " "" "" "" "" "" "" "" "" "" "" "BusbarSection" 0 "" "" "" "" ""
   110 "PEORIA 6 0"   115.00000000000000000000 "NO " 0.00000000000000000000 0.00000000000000000000 0.99411523368805654300 -77.38465491338990890000 1.00000000000000000000      1      2    110      1 57    40.699807   -89.611514 "YES" "Default" "NO " "" "" "" "" "" "" "" "" "" "" "BusbarSection" 0 "" "" "" "" ""
   111 "SAVOY 0"      115.00000000000000000000 "NO " 0.00000000000000000000 0.00000000000000000000 1.01310894860916645000 -83.64858749798514740000 1.00000000000000000000      1      5    111      1 58    40.045756   -88.259444 "YES" "Default" "NO " "" "" "" "" "" "" "" "" "" "" "BusbarSection" 0 "" "" "" "" ""
   112 "NORMAL 2 0"   230.00000000000000000000 "NO " 0.00000000000000000000 0.00000000000000000000 1.02110507626913960000 -76.87658928623945090000 1.00000000000000000000      1      7    112      1 59    40.537000   -89.019000 "YES" "Default" "NO " "" "" "" "" "" "" "" "" "" "" "BusbarSection" 0 "" "" "" "" ""
   113 "NORMAL 2 1"   115.00000000000000000000 "NO " 0.00000000000000000000 0.00000000000000000000 1.00091735898179435000 -80.17836328236909080000 1.00000000000000000000      1      7    113      1 59    40.537000   -89.019000 "YES" "Default" "NO " "" "" "" "" "" "" "" "" "" "" "BusbarSection" 0 "" "" "" "" ""
   114 "NORMAL 2 2"   13.80000019073486330000 "NO " 0.00000000000000000000 0.00000000000000000000 1.02286614955859223000 -76.79320340295134880000 1.00000000000000000000      1      7    114      1 59    40.537000   -89.019000 "YES" "Default" "NO " "" "" "" "" "" "" "" "" "" "" "BusbarSection" 0 "" "" "" "" ""
   115 "NORMAL 2 3"   13.80000019073486330000 "NO " 0.00000000000000000000 0.00000000000000000000 1.03999996185420596000 -75.28231713057890320000 1.00000000000000000000      1      7    115      1 59    40.537000   -89.019000 "YES" "Default" "NO " "" "" "" "" "" "" "" "" "" "" "BusbarSection" 0 "" "" "" "" ""
   116 "EAST PEORIA 0" 230.00000000000000000000 "NO " 0.00000000000000000000 0.00000000000000000000 1.01066934593747315000 -74.46414361462865370000 1.00000000000000000000      1      2    116      1 60    40.713236   -89.535816 "YES" "Default" "NO " "" "" "" "" "" "" "" "" "" "" "BusbarSection" 0 "" "" "" "" ""
   117 "EAST PEORIA 1" 115.00000000000000000000 "NO " 0.00000000000000000000 0.00000000000000000000 0.99980737463938207400 -77.04661648681140210000 1.00000000000000000000      1      2    117      1 60    40.713236   -89.535816 "YES" "Default" "NO " "" "" "" "" "" "" "" "" "" "" "BusbarSection" 0 "" "" "" "" ""
   118 "HANNA CITY 0" 115.00000000000000000000 "NO " 0.00000000000000000000 0.00000000000000000000 1.00430386290931084000 -76.15142835605496430000 1.00000000000000000000      1      2    118      1 61    40.689425   -89.793782 "YES" "Default" "NO " "" "" "" "" "" "" "" "" "" "" "BusbarSection" 0 "" "" "" "" ""
   119 "METAMORA 0"   115.00000000000000000000 "NO " 0.00000000000000000000 0.00000000000000000000 0.99346816219921363400 -79.37778428647588670000 1.00000000000000000000      1      2    119      1 62    40.870710   -89.353494 "YES" "Default" "NO " "" "" "" "" "" "" "" "" "" "" "BusbarSection" 0 "" "" "" "" ""
   120 "GREENVIEW 0"  115.00000000000000000000 "NO " 0.00000000000000000000 0.00000000000000000000 1.00644427855857699000 -79.64406800205064480000 1.00000000000000000000      1      4    120      1 63    40.092750   -89.724017 "YES" "Default" "NO " "" "" "" "" "" "" "" "" "" "" "BusbarSection" 0 "" "" "" "" ""
   121 "CLINTON 2 0"  230.00000000000000000000 "NO " 0.00000000000000000000 0.00000000000000000000 1.03346923980353944000 -74.25821427234305360000 1.00000000000000000000      1      7    121      1 64    40.200639   -88.814798 "YES" "Default" "NO " "" "" "" "" "" "" "" "" "" "" "BusbarSection" 0 "" "" "" "" ""
   122 "CLINTON 2 1"  115.00000000000000000000 "NO " 0.00000000000000000000 0.00000000000000000000 1.02727839747345739000 -76.43022718050220020000 1.00000000000000000000      1      7    122      1 64    40.200639   -88.814798 "YES" "Default" "NO " "" "" "" "" "" "" "" "" "" "" "BusbarSection" 0 "" "" "" "" ""
   123 "BARTONVILLE 0" 230.00000000000000000000 "NO " 0.00000000000000000000 0.00000000000000000000 1.02251170493370869000 -72.31785015474270040000 1.00000000000000000000      1      2    123      1 65    40.595800   -89.663100 "YES" "Default" "NO " "" "" "" "" "" "" "" "" "" "" "BusbarSection" 0 "" "" "" "" ""
   124 "BARTONVILLE 1" 115.00000000000000000000 "NO " 0.00000000000000000000 0.00000000000000000000 1.00911115697280529000 -75.08726406760369800000 1.00000000000000000000      1      2    124      1 65    40.595800   -89.663100 "YES" "Default" "NO " "" "" "" "" "" "" "" "" "" "" "BusbarSection" 0 "" "" "" "" ""
   125 "BARTONVILLE 2" 13.80000019073486330000 "NO " 0.00000000000000000000 0.00000000000000000000 1.03999996185351429000 -63.88992777487595020000 1.00000000000000000000      1      2    125      1 65    40.595800   -89.663100 "YES" "Default" "NO " "" "" "" "" "" "" "" "" "" "" "BusbarSection" 0 "" "" "" "" ""
   126 "BARTONVILLE 3" 13.80000019073486330000 "NO " 0.00000000000000000000 0.00000000000000000000 1.03999996185366572000 -66.99752462159682410000 1.00000000000000000000      1      2    126      1 65    40.595800   -89.663100 "YES" "Default" "NO " "" "" "" "" "" "" "" "" "" "" "BusbarSection" 0 "" "" "" "" ""
   127 "BARTONVILLE 4" 13.80000019073486330000 "NO " 0.00000000000000000000 0.00000000000000000000 1.03999996185396726000 -69.78591235080638460000 1.00000000000000000000      1      2    127      1 65    40.595800   -89.663100 "YES" "Default" "NO " "" "" "" "" "" "" "" "" "" "" "BusbarSection" 0 "" "" "" "" ""
   128 "NORMAL 1 0"   230.00000000000000000000 "NO " 0.00000000000000000000 0.00000000000000000000 1.02058057541621028000 -76.72548217173827820000 1.00000000000000000000      1      7    128      1 66    40.529083   -88.958937 "YES" "Default" "NO " "" "" "" "" "" "" "" "" "" "" "BusbarSection" 0 "" "" "" "" ""
   129 "NORMAL 1 1"   115.00000000000000000000 "NO " 0.00000000000000000000 0.00000000000000000000 0.99956886914115139500 -80.39613064616285950000 1.00000000000000000000      1      7    129      1 66    40.529083   -88.958937 "YES" "Default" "NO " "" "" "" "" "" "" "" "" "" "" "BusbarSection" 0 "" "" "" "" ""
   130 "LEXINGTON 0"  115.00000000000000000000 "NO " 0.00000000000000000000 0.00000000000000000000 1.01509773845856222000 -77.50311948016292260000 1.00000000000000000000      1      7    130      1 67    40.629725   -88.788001 "YES" "Default" "NO " "" "" "" "" "" "" "" "" "" "" "BusbarSection" 0 "" "" "" "" ""
   131 "PEORIA 5 0"   115.00000000000000000000 "NO " 0.00000000000000000000 0.00000000000000000000 0.99509935790928294400 -77.21704482682301320000 1.00000000000000000000      1      2    131      1 68    40.737893   -89.686781 "YES" "Default" "NO " "" "" "" "" "" "" "" "" "" "" "BusbarSection" 0 "" "" "" "" ""
   132 "MORTON 0"     115.00000000000000000000 "NO " 0.00000000000000000000 0.00000000000000000000 0.99041990570086113600 -79.39984804882814730000 1.00000000000000000000      1      2    132      1 69    40.618858   -89.336899 "YES" "Default" "NO " "" "" "" "" "" "" "" "" "" "" "BusbarSection" 0 "" "" "" "" ""
   133 "PEKIN 1 0"    230.00000000000000000000 "NO " 0.00000000000000000000 0.00000000000000000000 1.02449801516294992000 -72.51677099222361280000 1.00000000000000000000      1      2    133      1 70    40.540800   -89.678600 "YES" "Default" "NO " "" "" "" "" "" "" "" "" "" "" "BusbarSection" 0 "" "" "" "" ""
   134 "PEKIN 1 1"    115.00000000000000000000 "NO " 0.00000000000000000000 0.00000000000000000000 1.02029955796444716000 -74.01362633335850200000 1.00000000000000000000      1      2    134      1 70    40.540800   -89.678600 "YES" "Default" "NO " "" "" "" "" "" "" "" "" "" "" "BusbarSection" 0 "" "" "" "" ""
   135 "PEKIN 1 2"    13.80000019073486330000 "NO " 0.00000000000000000000 0.00000000000000000000 1.03999996185342081000 -68.98688355413651150000 1.00000000000000000000      1      2    135      1 70    40.540800   -89.678600 "YES" "Default" "NO " "" "" "" "" "" "" "" "" "" "" "BusbarSection" 0 "" "" "" "" ""
   136 "PEKIN 1 3"    13.80000019073486330000 "NO " 0.00000000000000000000 0.00000000000000000000 1.03999996185350985000 -69.24074696302822930000 1.00000000000000000000      1      2    136      1 70    40.540800   -89.678600 "YES" "Default" "NO " "" "" "" "" "" "" "" "" "" "" "BusbarSection" 0 "" "" "" "" ""
   137 "NIANTIC 0"    115.00000000000000000000 "NO " 0.00000000000000000000 0.00000000000000000000 1.01983797766919371000 -77.59602630362633140000 1.00000000000000000000      1      4    137      1 71    39.855374   -89.158927 "YES" "Default" "NO " "" "" "" "" "" "" "" "" "" "" "BusbarSection" 0 "" "" "" "" ""
   138 "COLFAX 0"     115.00000000000000000000 "NO " 0.00000000000000000000 0.00000000000000000000 1.01872082753643878000 -80.00014099688510780000 1.00000000000000000000      1      6    138      1 72    40.554670   -88.514468 "YES" "Default" "NO " "" "" "" "" "" "" "" "" "" "" "BusbarSection" 0 "" "" "" "" ""
   139 "EL PASO 0"    115.00000000000000000000 "NO " 0.00000000000000000000 0.00000000000000000000 1.00157748239418698000 -80.25188582459433920000 1.00000000000000000000      1      2    139      1 73    40.744984   -89.029986 "YES" "Default" "NO " "" "" "" "" "" "" "" "" "" "" "BusbarSection" 0 "" "" "" "" ""
   140 "TREMONT 0"    115.00000000000000000000 "NO " 0.00000000000000000000 0.00000000000000000000 1.00723697814573709000 -75.52006545202337410000 1.00000000000000000000      1      2    140      1 74    40.511627   -89.482220 "YES" "Default" "NO " "" "" "" "" "" "" "" "" "" "" "BusbarSection" 0 "" "" "" "" ""
   141 "PEORIA 4 0"   115.00000000000000000000 "NO " 0.00000000000000000000 0.00000000000000000000 0.99407461021920962000 -77.36529044706527710000 1.00000000000000000000      1      2    141      1 75    40.674568   -89.608587 "YES" "Default" "NO " "" "" "" "" "" "" "" "" "" "" "BusbarSection" 0 "" "" "" "" ""
   142 "PEORIA 3 0"   115.00000000000000000000 "NO " 0.00000000000000000000 0.00000000000000000000 0.99236468389645027300 -77.33329976323378220000 1.00000000000000000000      1      2    142      1 76    40.759136   -89.604123 "YES" "Default" "NO " "" "" "" "" "" "" "" "" "" "" "BusbarSection" 0 "" "" "" "" ""
   143 "CHAMPAIGN 2 0" 115.00000000000000000000 "NO " 0.00000000000000000000 0.00000000000000000000 1.01082954883681575000 -81.12205149749989630000 1.00000000000000000000      1      5    143      1 77    40.136481   -88.305307 "YES" "Default" "NO " "" "" "" "" "" "" "" "" "" "" "BusbarSection" 0 "" "" "" "" ""
   144 "EUREKA 0"     115.00000000000000000000 "NO " 0.00000000000000000000 0.00000000000000000000 1.00438356218025970000 -77.91230941187754410000 1.00000000000000000000      1      2    144      1 78    40.714370   -89.260105 "YES" "Default" "NO " "" "" "" "" "" "" "" "" "" "" "BusbarSection" 0 "" "" "" "" ""
   145 "CHATHAM 0"    115.00000000000000000000 "NO " 0.00000000000000000000 0.00000000000000000000 1.01842374986818562000 -76.64469718696429370000 1.00000000000000000000      1      3    145      1 79    39.668014   -89.826988 "YES" "Default" "NO " "" "" "" "" "" "" "" "" "" "" "BusbarSection" 0 "" "" "" "" ""
   146 "HOPEDALE 2 0" 115.00000000000000000000 "NO " 0.00000000000000000000 0.00000000000000000000 1.01593928901479691000 -80.24624703938934540000 1.00000000000000000000      1      7    146      1 80    40.369200   -89.402200 "YES" "Default" "NO " "" "" "" "" "" "" "" "" "" "" "BusbarSection" 0 "" "" "" "" ""
   147 "HOPEDALE 2 1" 13.80000019073486330000 "NO " 0.00000000000000000000 0.00000000000000000000 1.03719946240833916000 -79.53352922316820180000 1.00000000000000000000      1      7    147      1 80    40.369200   -89.402200 "YES" "Default" "NO " "" "" "" "" "" "" "" "" "" "" "BusbarSection" 0 "" "" "" "" ""
   148 "WASHINGTON 0" 115.00000000000000000000 "NO " 0.00000000000000000000 0.00000000000000000000 0.98606524484856650200 -78.41358009319569080000 1.00000000000000000000      1      2    148      1 81    40.704146   -89.417889 "YES" "Default" "NO " "" "" "" "" "" "" "" "" "" "" "BusbarSection" 0 "" "" "" "" ""
...